Resultados_Ferramenta_Computacional_ds_ons_122023_rv0d29/ds_ons_122023_rv0d29_Estagio01.m
function mpc = ds_ons_122023_rv0d29_Estagio01
% CASO SIN: extraido dos arquivos de dados do DESSEM
%
% CASO SIN: Fluxo de Potencia do SIN extraido de arquivo de dados do DESSEM
% Autores Francisco Povoas e Murilo Reolon
%
%   MATPOWER
%
%% MATPOWER Case Format : Version 2
mpc.version = '2';
%
%%-----  Power Flow Data  -----%%

%% system MVA base
mpc.baseMVA = 100;

%% bus data
%	bus_i   type    Pd      Qd      Gs      Bs      area    Vm      Va      baseKV  zone    Vmax    Vmin
mpc.bus = [
   10      2       32.0    15.5    0       0       221     0.976   105     992     0       1.05    0.95;
   11      2       0       0       0       0       221     0.953   112     992     0       1.05    0.95;
   12      2       0       0       0       0       204     1.0     101     992     0       1.05    0.95;
   13      2       0       0       0       0       204     0.98    97.1    990     0       1.05    0.95;
   14      2       0       0       0       0       225     0.958   105     992     0       1.05    0.95;
   16      2       0       0       0       0       189     0.99    100     992     0       1.05    0.95;
   17      2       0       0       0       0       189     0.93    93.7    990     0       1.05    0.95;
   18      2       0       0       0       0       188     0.977   88.8    992     0       1.05    0.95;
   19      2       0       0       0       0       188     0.979   84.1    990     0       1.05    0.95;
   20      2       0       0       0       0       188     1.012   99.7    992     0       1.05    0.95;
   21      2       0       0       0       0       137     0.968   96      992     0       1.05    0.95;
   22      2       0       0       0       0       189     1.041   97.3    992     0       1.05    0.95;
   23      2       0       0       0       0       149     1.014   57.2    990     0       1.05    0.95;
   24      2       0       0       0       0       208     0.944   96.9    992     0       1.05    0.95;
   27      1       0       0       0       0       202     1.008   103     500     0       1.1     1;
   28      2       0       0       0       0       208     0.965   113     992     0       1.05    0.95;
   30      2       0       0       0       0       224     0.997   100     992     0       1.05    0.95;
   31      2       0       0       0       0       224     0.997   100     992     0       1.05    0.95;
   32      2       0       0       0       0       224     0.997   100     992     0       1.05    0.95;
   35      2       0       0       0       0       148     1.016   77.3    992     0       1.05    0.95;
   36      2       0       0       0       0       147     0.977   63.5    992     0       1.05    0.95;
   37      2       0       0       0       0       147     0.97    57.5    990     0       1.05    0.95;
   38      2       0       0       0       0       221     1.01    100     13.8    0       1.05    0.95;
   41      2       0       0       0       0       234     0.971   71.3    990     0       1.05    0.95;
   44      2       0       0       0       0       221     1.01    100     13.8    0       1.05    0.95;
   46      1       0       0       0       0       222     0.718   83.4    15      0       1.9     0.4;
   47      2       0       0       0       0       234     0.971   71.3    990     0       1.05    0.95;
   48      2       0       0       0       0       204     0.976   104     20      0       1.05    0.95;
   50      2       0       0       0       0       201     0.989   101     20      0       1.05    0.95;
   52      1       0       0       0       0       222     0.772   83.4    345     0       1.05    0.95;
   53      2       0       0       0       0       222     0.969   83.4    20      0       1.05    0.95;
   54      2       0       0       0       0       222     0.969   83.4    20      0       1.05    0.95;
   56      1       0       0       0       0       201     0.737   121     69      0       1.9     0.4;
   57      1       0       0       0       0       201     0.69    121     69      0       1.9     0.4;
   58      1       0       0       0       0       201     0.836   121     991     0       1.9     0.4;
   59      1       0       0       0       0       201     0.827   121     991     0       1.9     0.4;
   60      1       0       0       0       0       201     0.836   125     765     0       1.046   0.9;
   61      1       0       0       0       0       240     0.787   127     500     0       1.1     1;
   62      1       0       0       0       0       201     0.866   115     765     0       1.046   0.9;
   63      1       0       0       0       0       201     0.866   115     765     0       1.046   0.9;
   64      1       0       0       0       0       201     0.864   115     765     0       1.046   0.9;
   65      1       0       0       0       0       201     0.869   119     765     0       1.046   0.9;
   66      1       0       0       0       0       101     0.833   120     525     0       1.048   0.95;
   67      1       0.24    0.0     0       0       201     0.687   121     69      0       1.9     0.4;
   68      1       0       0       0       0       201     0.833   121     991     0       1.9     0.4;
   69      1       0       0       0       0       201     0.872   125     765     0       1.046   0.9;
   70      1       0       0       0       0       201     0.873   125     765     0       1.046   0.9;
   71      1       0       0       0       0       201     0.869   125     765     0       1.046   0.9;
   72      1       0       0       0       0       201     0.923   113     765     0       1.046   0.9;
   73      1       0       0       0       0       201     1.019   120     765     0       1.046   0.9;
   74      1       0       0       0       0       201     0.753   120     765     0       1.046   0.9;
   75      1       0       0       0       0       201     0.742   120     765     0       1.046   0.9;
   76      1       0       0       0       0       201     0.755   106     765     0       1.046   0.9;
   77      1       0       0       0       0       202     1.03    105     500     0       1.1     1;
   78      1       0       0       0       0       204     0.998   101     345     0       1.05    0.95;
   79      1       0       0       0       0       201     0.659   105     69      0       1.9     0.4;
   80      1       0       0       0       0       201     0.768   105     991     0       1.9     0.4;
   81      1       0       0       0       0       201     0.765   101     991     0       1.9     0.4;
   82      1       0       0       0       0       204     0.98    101     345     0       1.05    0.95;
   84      1       0       0       0       0       225     1.02    102     138     0       1.05    0.95;
   85      1       60.0    0.0     0       0       241     1.084   -0.13   500     0       1.1     1;
   86      2       0       0       0       0       204     1.03    104     345     0       1.05    0.95;
   87      1       0       0       0       0       221     1.012   103     500     0       1.1     1;
   90      1       0       0       0       0       234     0.439   71.6    345     0       1.05    0.95;
   91      1       0       0       0       0       234     0.745   70.6    13.8    0       1.9     0.4;
   92      1       0       0       0       0       147     0.826   70.3    500     0       1.1     1;
   93      1       0       0       0       0       147     0.828   68.9    500     0       1.1     1;
   94      1       0       0       0       0       147     0.831   69.3    500     0       1.1     1;
   95      1       0       0       0       0       234     0.745   70.6    13.8    0       1.9     0.4;
   96      1       0       0       0       0       234     0.745   70.6    13.8    0       1.9     0.4;
   99      1       0       0       0       0       202     0.636   108     500     0       1.1     1;
   100     1       0       0       0       0       188     1.087   95.7    500     0       1.1     1;
   101     1       0       0       0       0       202     0.997   105     500     0       1.1     1;
   102     1       0       0       0       0       188     1.117   100     500     0       1.1     1;
   103     1       0       0       0       0       202     0.902   104     500     0       1.1     1;
   104     1       0       0       0       0       202     0.957   103     500     0       1.1     1;
   105     1       0       0       0       0       221     0.931   106     500     0       1.1     1;
   106     1       0       0       0       0       221     0.964   103     500     0       1.1     1;
   107     1       0       0       0       0       221     0.855   102     500     0       1.1     1;
   108     1       0       0       0       0       221     0.85    102     500     0       1.1     1;
   109     1       0       0       0       0       221     0.964   103     500     0       1.1     1;
   110     1       0       0       0       0       221     0.798   100     991     0       1.9     0.4;
   112     1       0       0       0       0       101     0.95    116     500     0       1.1     1;
   113     1       0       0       0       0       101     0.95    116     500     0       1.1     1;
   114     1       0       0       0       0       101     0.95    116     500     0       1.1     1;
   115     1       0       0       0       0       101     1.003   127     500     0       1.1     1;
   116     1       0       0       0       0       226     0.608   95      138     0       1.05    0.95;
   118     1       0       0       0       0       148     0.978   73.7    991     0       1.9     0.4;
   119     1       0       0       0       0       148     0.978   73.7    13.8    0       1.9     0.4;
   120     1       0       0       0       0       189     1.011   96.9    345     0       1.05    0.95;
   121     1       0       0       0       0       188     0.94    96.1    991     0       1.9     0.4;
   122     1       0       0       0       0       202     1.076   108     500     0       1.1     1;
   123     1       0       0       0       0       204     0.964   101     345     0       1.05    0.95;
   124     1       0       0       0       0       202     0.858   100     991     0       1.9     0.4;
   125     1       0       0       0       0       202     1.273   98.2    500     0       1.1     1;
   126     1       0       0       0       0       204     0.686   98.1    345     0       1.05    0.95;
   127     1       0       0       0       0       204     0.905   99.3    345     0       1.05    0.95;
   128     1       0       0       0       0       204     0.905   99.3    345     0       1.05    0.95;
   129     1       0       0       0       0       204     0.905   98.6    345     0       1.05    0.95;
   130     1       0       0       0       0       202     1.273   98.2    500     0       1.1     1;
   131     1       0       0       0       0       189     0.895   97.3    345     0       1.05    0.95;
   133     1       0       0       0       0       222     0.624   96.3    991     0       1.9     0.4;
   134     1       0       0       0       0       204     0.941   97.1    345     0       1.05    0.95;
   135     1       0       0       0       0       222     0.729   98.6    991     0       1.9     0.4;
   136     1       0       0       0       0       189     0.82    93.7    345     0       1.05    0.95;
   137     1       0       0       0       0       222     0.729   98.6    991     0       1.9     0.4;
   138     1       0       0       0       0       189     0.87    88.1    345     0       1.05    0.95;
   139     1       0       0       0       0       221     0.803   98.8    991     0       1.9     0.4;
   140     1       0       0       0       0       222     0.995   98.2    345     0       1.05    0.95;
   141     1       0       0       0       0       221     0.754   96.8    991     0       1.9     0.4;
   142     1       0       0       0       0       221     0.75    97.1    991     0       1.9     0.4;
   143     1       0       0       0       0       222     0.639   96.2    991     0       1.9     0.4;
   144     1       0       0       0       0       222     0.703   98.8    345     0       1.05    0.95;
   145     1       0       0       0       0       222     0.629   96.2    991     0       1.9     0.4;
   146     1       0       0       0       0       222     0.627   96.2    991     0       1.9     0.4;
   147     1       0       0       0       0       222     1.008   83.4    345     0       1.05    0.95;
   148     1       0       0       0       0       222     0.489   82.7    991     0       1.9     0.4;
   149     1       0       0       0       0       234     0.75    71.3    345     0       1.05    0.95;
   150     1       0       0       0       0       234     0.772   69.4    991     0       1.9     0.4;
   152     1       0       0       0       0       234     0.772   69.4    991     0       1.9     0.4;
   153     1       0       0       0       0       234     0.773   69.3    991     0       1.9     0.4;
   154     1       0       0       0       0       234     0.788   69.4    13.8    0       1.9     0.4;
   155     1       0       0       0       0       234     0.789   69.3    13.8    0       1.9     0.4;
   156     1       0       0       0       0       234     0.784   69.5    13.8    0       1.9     0.4;
   158     1       0       0       0       0       234     0.77    69.5    991     0       1.9     0.4;
   159     1       0       0       0       0       222     0.702   98.6    13.8    0       1.9     0.4;
   160     1       0       0       0       0       222     0.708   98.6    13.8    0       1.9     0.4;
   161     1       0       0       0       0       205     0.993   98.4    230     0       1.05    0.95;
   162     1       0       0       0       0       204     0.778   101     991     0       1.9     0.4;
   163     1       0       0       0       0       204     0.732   101     13.8    0       1.9     0.4;
   164     1       0       0       0       0       189     0.779   95.2    991     0       1.9     0.4;
   165     1       0       0       0       0       189     0.718   95.2    13.8    0       1.9     0.4;
   166     1       0       0       0       0       222     0.731   98.6    991     0       1.9     0.4;
   167     1       0       0       0       0       222     0.702   98.6    13.8    0       1.9     0.4;
   169     1       0       0       0       0       224     0.998   99      138     0       1.05    0.95;
   170     1       0       0       0       0       196     1.043   95.4    138     0       1.05    0.95;
   171     1       0       0       0       0       207     0.824   101     138     0       1.05    0.95;
   172     1       0       0       0       0       226     0.711   97.7    138     0       1.05    0.95;
   173     1       0       0       0       0       226     0.986   96.3    138     0       1.05    0.95;
   174     1       0       0       0       0       228     0.652   87.7    138     0       1.05    0.95;
   175     1       0       0       0       0       229     1.0     82.8    138     0       1.05    0.95;
   176     1       0       0       0       0       202     0.853   101     991     0       1.9     0.4;
   177     1       0       0       0       0       236     0.999   69.6    138     0       1.05    0.95;
   178     1       0       0       0       0       224     0.998   100     138     0       1.05    0.95;
   179     1       0       0       0       0       221     0.798   100     991     0       1.9     0.4;
   180     1       0       0       0       0       224     1.001   98.7    138     0       1.05    0.95;
   181     1       0       0       0       0       221     0.996   99.4    138     0       1.05    0.95;
   182     1       0       0       0       0       225     0.87    102     138     0       1.05    0.95;
   183     1       0       0       0       0       214     1.009   102     138     0       1.05    0.95;
   184     1       0       0       0       0       224     1.07    100     138     0       1.05    0.95;
   185     1       0       0       0       0       225     1.209   114     138     0       1.05    0.95;
   186     1       0       0       0       0       202     0.853   101     13.8    0       1.9     0.4;
   187     1       0       0       0       0       195     1.015   96.9    138     0       1.05    0.95;
   189     1       0       0       0       0       159     0.734   60.6    991     0       1.9     0.4;
   190     1       0       0       0       0       208     1.003   108     138     0       1.05    0.95;
   192     1       0       0       0       0       222     0.489   82.7    13.8    0       1.9     0.4;
   194     1       0       0       0       0       221     0.664   97.1    13.8    0       1.9     0.4;
   195     1       0       0       0       0       221     0.664   96.8    13.8    0       1.9     0.4;
   196     1       0       0       0       0       202     0.715   100     13.8    0       1.9     0.4;
   197     1       0       0       0       0       221     0.803   98.8    13.8    0       1.9     0.4;
   198     1       0       0       0       0       188     0.793   96.1    13.8    0       1.9     0.4;
   199     1       0       0       0       0       234     0.788   69.4    13.8    0       1.9     0.4;
   200     1       0       0       0       0       229     0.434   81.1    991     0       1.9     0.4;
   201     1       0       0       0       0       229     0.528   81.1    992     0       1.05    0.95;
   202     1       0       0       0       0       229     0.528   81.1    991     0       1.9     0.4;
   203     1       0       0       0       0       229     0.528   81.1    992     0       1.05    0.95;
   204     1       0       0       0       0       222     0.712   96.2    13.8    0       1.9     0.4;
   205     1       0       0       0       0       222     0.711   96.2    13.8    0       1.9     0.4;
   206     1       0       0       0       0       222     0.712   96.2    13.8    0       1.9     0.4;
   208     1       0       0       0       0       159     0.821   60.6    13.8    0       1.9     0.4;
   209     1       0       0       0       0       222     0.711   96.3    13.8    0       1.9     0.4;
   210     1       0       0       0       0       188     0.844   84.1    500     0       1.1     1;
   211     1       0       0       0       0       222     0.588   82.7    991     0       1.9     0.4;
   212     1       0       0       0       0       222     0.588   82.7    13.8    0       1.9     0.4;
   213     1       0       0       0       0       189     1.04    94.3    345     0       1.05    0.95;
   214     1       0       0       0       0       188     0.994   94      991     0       1.9     0.4;
   216     1       0       0       0       0       189     0.839   92.9    345     0       1.05    0.95;
   217     1       0       0       0       0       189     0.242   82      345     0       1.05    0.95;
   218     1       0       0       0       0       148     1.044   73.3    345     0       1.05    0.95;
   219     1       0       0       0       0       158     0.948   63.9    345     0       1.05    0.95;
   220     1       0       0       0       0       148     0.914   77.3    345     0       1.05    0.95;
   221     1       0       0       0       0       160     1.007   60.7    34.5    0       1.05    0.95;
   222     1       0       0       0       0       158     0.96    62.9    991     0       1.9     0.4;
   223     1       0       0       0       0       148     1.133   73.7    991     0       1.9     0.4;
   224     1       0       0       0       0       148     1.086   73.7    991     0       1.9     0.4;
   225     1       0       0       0       0       190     1.035   81.6    230     0       1.05    0.95;
   226     1       0       0       0       0       149     1.144   73.6    230     0       1.05    0.95;
   227     1       0       0       0       0       159     0.958   63      230     0       1.05    0.95;
   228     1       0       0       0       0       159     0.958   63.1    230     0       1.05    0.95;
   229     1       0       0       0       0       149     0.984   49.8    230     0       1.05    0.95;
   230     1       0       0       0       0       149     1.018   56.2    230     0       1.05    0.95;
   231     1       0       0       0       0       149     0.673   82      230     0       1.05    0.95;
   232     1       0       0       0       0       158     0.96    62.9    13.8    0       1.9     0.4;
   233     1       0       0       0       0       157     1.015   63.6    500     0       1.1     1;
   234     1       0       0       0       0       158     1.01    64      345     0       1.05    0.95;
   235     1       0       0       0       0       147     0.991   57.5    500     0       1.1     1;
   236     1       0       0       0       0       160     1.011   61.6    138     0       1.05    0.95;
   237     1       0       0       0       0       160     1.048   62.7    138     0       1.05    0.95;
   238     1       0       0       0       0       153     0.986   80.4    138     0       1.05    0.95;
   239     1       0       0       0       0       154     1.013   54.7    138     0       1.05    0.95;
...
];
%% generator data
%	bus       Pg        Qg        Qmax      Qmin      Vg        mBase     status    Pmax      Pmin      Pc1       Pc2       Qc1min    Qc1max    Qc2min    Qc2max    ramp_agc  ramp_10   ramp_30   ramp_q    apf
mpc.gen = [
   11        1350.0    1352.0    600.0     -350.0    0.953     100       1         1350.0    0.0       0.00      0.00      0.00      0.00      0.00      0.00      0.00      0.00      0.00      0.00      0.00;
   8646      0.0       3.89      30.86     -30.9     0.986     100       1         40.0      0.0       0.00      0.00      0.00      0.00      0.00      0.00      0.00      0.00      0.00      0.00      0.00;
   8646      0.0       3.89      30.86     -30.9     0.986     100       1         40.0      0.0       0.00      0.00      0.00      0.00      0.00      0.00      0.00      0.00      0.00      0.00      0.00;
   8653      43.0      15.72     74.98     -75.0     1.003     100       1         43.0      0.0       0.00      0.00      0.00      0.00      0.00      0.00      0.00      0.00      0.00      0.00      0.00;
   8653      32.0      15.72     74.98     -75.0     1.003     100       1         43.0      0.0       0.00      0.00      0.00      0.00      0.00      0.00      0.00      0.00      0.00      0.00      0.00;
   802       0.0       -288.0    0.0       0.0       0.987     100       1         235.0     0.0       0.00      0.00      0.00      0.00      0.00      0.00      0.00      0.00      0.00      0.00      0.00;
   802       0.0       -288.0    0.0       0.0       0.987     100       1         235.0     0.0       0.00      0.00      0.00      0.00      0.00      0.00      0.00      0.00      0.00      0.00      0.00;
   803       0.0       -288.0    0.0       0.0       0.987     100       1         484.15    0.0       0.00      0.00      0.00      0.00      0.00      0.00      0.00      0.00      0.00      0.00      0.00;
   9600      90.0      -137.0    96.0      -96.0     0.99      100       1         90.0      0.0       0.00      0.00      0.00      0.00      0.00      0.00      0.00      0.00      0.00      0.00      0.00;
   9603      0.0       -326.0    233.0     -233.0    0.973     100       1         155.0     0.0       0.00      0.00      0.00      0.00      0.00      0.00      0.00      0.00      0.00      0.00      0.00;
   9627      0.0       -502.0    0.0       0.0       1.029     100       1         265.0     0.0       0.00      0.00      0.00      0.00      0.00      0.00      0.00      0.00      0.00      0.00      0.00;
   9627      0.0       -502.0    0.0       0.0       1.029     100       1         265.0     0.0       0.00      0.00      0.00      0.00      0.00      0.00      0.00      0.00      0.00      0.00      0.00;
   9628      0.0       -246.0    0.0       0.0       1.029     100       1         530.0     0.0       0.00      0.00      0.00      0.00      0.00      0.00      0.00      0.00      0.00      0.00      0.00;
   5220      0.0       -83.4     0.0       0.0       0.997     100       1         42.27     0.0       0.00      0.00      0.00      0.00      0.00      0.00      0.00      0.00      0.00      0.00      0.00;
   5220      0.0       -83.4     0.0       0.0       0.997     100       1         42.27     0.0       0.00      0.00      0.00      0.00      0.00      0.00      0.00      0.00      0.00      0.00      0.00;
   5220      0.0       -83.4     0.0       0.0       0.997     100       1         42.27     0.0       0.00      0.00      0.00      0.00      0.00      0.00      0.00      0.00      0.00      0.00      0.00;
   5220      0.0       -83.4     0.0       0.0       0.997     100       1         42.27     0.0       0.00      0.00      0.00      0.00      0.00      0.00      0.00      0.00      0.00      0.00      0.00;
   1173      300.0     -124.0    160.0     -115.0    0.954     100       1         350.0     0.0       0.00      0.00      0.00      0.00      0.00      0.00      0.00      0.00      0.00      0.00      0.00;
   8611      17.08     8.08      51.24     -16.0     1.002     100       1         17.08     0.0       0.00      0.00      0.00      0.00      0.00      0.00      0.00      0.00      0.00      0.00      0.00;
   8611      17.08     8.08      51.24     -16.0     1.002     100       1         17.08     0.0       0.00      0.00      0.00      0.00      0.00      0.00      0.00      0.00      0.00      0.00      0.00;
   8611      1.34      8.08      51.24     -16.0     1.002     100       1         17.08     0.0       0.00      0.00      0.00      0.00      0.00      0.00      0.00      0.00      0.00      0.00      0.00;
   8611      17.08     8.08      51.24     -16.0     1.002     100       1         17.08     0.0       0.00      0.00      0.00      0.00      0.00      0.00      0.00      0.00      0.00      0.00      0.00;
   9100      0.0       -84.0     0.0       0.0       0.956     100       1         48.0      0.0       0.00      0.00      0.00      0.00      0.00      0.00      0.00      0.00      0.00      0.00      0.00;
   9101      0.0       -122.0    0.0       0.0       0.956     100       1         216.0     0.0       0.00      0.00      0.00      0.00      0.00      0.00      0.00      0.00      0.00      0.00      0.00;
   5654      0.0       -257.0    0.0       0.0       0.982     100       1         160.0     0.0       0.00      0.00      0.00      0.00      0.00      0.00      0.00      0.00      0.00      0.00      0.00;
   5654      0.0       -257.0    0.0       0.0       0.982     100       1         160.0     0.0       0.00      0.00      0.00      0.00      0.00      0.00      0.00      0.00      0.00      0.00      0.00;
   5655      0.0       -135.0    0.0       0.0       0.982     100       1         327.0     0.0       0.00      0.00      0.00      0.00      0.00      0.00      0.00      0.00      0.00      0.00      0.00;
   5820      0.0       0.0       0.0       0.0       0.997     100       1         79.36     0.0       0.00      0.00      0.00      0.00      0.00      0.00      0.00      0.00      0.00      0.00      0.00;
   5820      0.0       0.0       0.0       0.0       0.997     100       1         79.36     0.0       0.00      0.00      0.00      0.00      0.00      0.00      0.00      0.00      0.00      0.00      0.00;
   5820      0.0       0.0       0.0       0.0       0.997     100       1         79.36     0.0       0.00      0.00      0.00      0.00      0.00      0.00      0.00      0.00      0.00      0.00      0.00;
   5820      0.0       0.0       0.0       0.0       0.997     100       1         69.44     0.0       0.00      0.00      0.00      0.00      0.00      0.00      0.00      0.00      0.00      0.00      0.00;
   5823      0.0       0.0       0.0       0.0       0.997     100       1         79.36     0.0       0.00      0.00      0.00      0.00      0.00      0.00      0.00      0.00      0.00      0.00      0.00;
   5823      0.0       0.0       0.0       0.0       0.997     100       1         79.36     0.0       0.00      0.00      0.00      0.00      0.00      0.00      0.00      0.00      0.00      0.00      0.00;
   5823      0.0       0.0       0.0       0.0       0.997     100       1         79.36     0.0       0.00      0.00      0.00      0.00      0.00      0.00      0.00      0.00      0.00      0.00      0.00;
   5823      0.0       0.0       0.0       0.0       0.997     100       1         69.44     0.0       0.00      0.00      0.00      0.00      0.00      0.00      0.00      0.00      0.00      0.00      0.00;
   3017      0.0       -20000.0  0.0       0.0       1.02      100       1         68.06     0.0       0.00      0.00      0.00      0.00      0.00      0.00      0.00      0.00      0.00      0.00      0.00;
   3017      0.0       -20000.0  0.0       0.0       1.02      100       1         68.06     0.0       0.00      0.00      0.00      0.00      0.00      0.00      0.00      0.00      0.00      0.00      0.00;
   1585      0.0       468.0     0.0       0.0       0.958     100       1         235.0     0.0       0.00      0.00      0.00      0.00      0.00      0.00      0.00      0.00      0.00      0.00      0.00;
   907       0.0       -227.0    0.0       0.0       0.952     100       1         40.0      0.0       0.00      0.00      0.00      0.00      0.00      0.00      0.00      0.00      0.00      0.00      0.00;
   907       0.0       -227.0    0.0       0.0       0.952     100       1         40.0      0.0       0.00      0.00      0.00      0.00      0.00      0.00      0.00      0.00      0.00      0.00      0.00;
   4100      0.0       21.12     0.0       0.0       0.951     100       1         43.11     0.0       0.00      0.00      0.00      0.00      0.00      0.00      0.00      0.00      0.00      0.00      0.00;
   4180      0.0       -101.0    0.0       0.0       0.978     100       1         43.94     0.0       0.00      0.00      0.00      0.00      0.00      0.00      0.00      0.00      0.00      0.00      0.00;
   909       55.0      -406.0    48.0      -42.0     0.971     100       1         55.0      0.0       0.00      0.00      0.00      0.00      0.00      0.00      0.00      0.00      0.00      0.00      0.00;
   911       110.0     -259.0    68.5      -15.5     0.99      100       1         110.0     0.0       0.00      0.00      0.00      0.00      0.00      0.00      0.00      0.00      0.00      0.00      0.00;
   913       300.0     -666.0    164.5     -61.0     0.957     100       1         330.0     0.0       0.00      0.00      0.00      0.00      0.00      0.00      0.00      0.00      0.00      0.00      0.00;
   8612      36.08     8.3       29.37     -21.2     0.995     100       1         36.08     0.0       0.00      0.00      0.00      0.00      0.00      0.00      0.00      0.00      0.00      0.00      0.00;
   8616      26.92     7.48      26.7      -19.3     0.994     100       1         39.36     0.0       0.00      0.00      0.00      0.00      0.00      0.00      0.00      0.00      0.00      0.00      0.00;
   9026      0.0       245.5     0.0       0.0       1.001     100       1         51.0      0.0       0.00      0.00      0.00      0.00      0.00      0.00      0.00      0.00      0.00      0.00      0.00;
   9026      0.0       245.5     0.0       0.0       1.001     100       1         51.0      0.0       0.00      0.00      0.00      0.00      0.00      0.00      0.00      0.00      0.00      0.00      0.00;
   9026      0.0       245.5     0.0       0.0       1.001     100       1         51.0      0.0       0.00      0.00      0.00      0.00      0.00      0.00      0.00      0.00      0.00      0.00      0.00;
   9026      0.0       245.5     0.0       0.0       1.001     100       1         51.0      0.0       0.00      0.00      0.00      0.00      0.00      0.00      0.00      0.00      0.00      0.00      0.00;
   9026      0.0       245.5     0.0       0.0       1.001     100       1         36.0      0.0       0.00      0.00      0.00      0.00      0.00      0.00      0.00      0.00      0.00      0.00      0.00;
   8609      18.35     18.96     51.24     -51.2     1.004     100       1         18.35     0.0       0.00      0.00      0.00      0.00      0.00      0.00      0.00      0.00      0.00      0.00      0.00;
   8609      18.35     18.96     51.24     -51.2     1.004     100       1         18.35     0.0       0.00      0.00      0.00      0.00      0.00      0.00      0.00      0.00      0.00      0.00      0.00;
   8609      0.0       18.96     51.24     -51.2     1.004     100       1         18.35     0.0       0.00      0.00      0.00      0.00      0.00      0.00      0.00      0.00      0.00      0.00      0.00;
   8609      15.3      18.96     51.24     -51.2     1.004     100       1         18.35     0.0       0.00      0.00      0.00      0.00      0.00      0.00      0.00      0.00      0.00      0.00      0.00;
   5460      0.0       -155.0    0.0       0.0       1.013     100       1         20.37     0.0       0.00      0.00      0.00      0.00      0.00      0.00      0.00      0.00      0.00      0.00      0.00;
   5460      0.0       -155.0    0.0       0.0       1.013     100       1         20.37     0.0       0.00      0.00      0.00      0.00      0.00      0.00      0.00      0.00      0.00      0.00      0.00;
   5460      0.0       -155.0    0.0       0.0       1.013     100       1         20.37     0.0       0.00      0.00      0.00      0.00      0.00      0.00      0.00      0.00      0.00      0.00      0.00;
   5460      0.0       -155.0    0.0       0.0       1.013     100       1         20.37     0.0       0.00      0.00      0.00      0.00      0.00      0.00      0.00      0.00      0.00      0.00      0.00;
   5460      0.0       -155.0    0.0       0.0       1.013     100       1         20.37     0.0       0.00      0.00      0.00      0.00      0.00      0.00      0.00      0.00      0.00      0.00      0.00;
   5460      0.0       -155.0    0.0       0.0       1.013     100       1         20.37     0.0       0.00      0.00      0.00      0.00      0.00      0.00      0.00      0.00      0.00      0.00      0.00;
   5460      0.0       -155.0    0.0       0.0       1.013     100       1         20.37     0.0       0.00      0.00      0.00      0.00      0.00      0.00      0.00      0.00      0.00      0.00      0.00;
   5460      0.0       -155.0    0.0       0.0       1.013     100       1         20.37     0.0       0.00      0.00      0.00      0.00      0.00      0.00      0.00      0.00      0.00      0.00      0.00;
   5646      490.0     -344.0    146.0     -181.0    0.977     100       1         518.8     0.0       0.00      0.00      0.00      0.00      0.00      0.00      0.00      0.00      0.00      0.00      0.00;
   5647      0.0       -117.0    109.0     -47.0     1.026     100       1         337.6     0.0       0.00      0.00      0.00      0.00      0.00      0.00      0.00      0.00      0.00      0.00      0.00;
   5648      0.0       -117.0    109.0     -47.0     1.026     100       1         337.6     0.0       0.00      0.00      0.00      0.00      0.00      0.00      0.00      0.00      0.00      0.00      0.00;
   5650      0.0       -109.0    0.0       0.0       1.034     100       1         178.21    0.0       0.00      0.00      0.00      0.00      0.00      0.00      0.00      0.00      0.00      0.00      0.00;
   3962      0.0       505.7     240.0     -140.0    0.996     100       1         250.0     0.0       0.00      0.00      0.00      0.00      0.00      0.00      0.00      0.00      0.00      0.00      0.00;
   3962      0.0       505.7     240.0     -140.0    0.996     100       1         250.0     0.0       0.00      0.00      0.00      0.00      0.00      0.00      0.00      0.00      0.00      0.00      0.00;
   3962      0.0       505.7     240.0     -140.0    0.996     100       1         250.0     0.0       0.00      0.00      0.00      0.00      0.00      0.00      0.00      0.00      0.00      0.00      0.00;
   3963      0.0       319.2     180.0     -110.0    0.984     100       1         520.0     0.0       0.00      0.00      0.00      0.00      0.00      0.00      0.00      0.00      0.00      0.00      0.00;
   6447      0.0       -89.3     0.0       0.0       1.001     100       1         41.86     0.0       0.00      0.00      0.00      0.00      0.00      0.00      0.00      0.00      0.00      0.00      0.00;
   6447      0.0       -89.3     0.0       0.0       1.001     100       1         33.5      0.0       0.00      0.00      0.00      0.00      0.00      0.00      0.00      0.00      0.00      0.00      0.00;
   6448      0.0       -89.3     0.0       0.0       1.001     100       1         41.86     0.0       0.00      0.00      0.00      0.00      0.00      0.00      0.00      0.00      0.00      0.00      0.00;
   6448      0.0       -89.3     0.0       0.0       1.001     100       1         41.86     0.0       0.00      0.00      0.00      0.00      0.00      0.00      0.00      0.00      0.00      0.00      0.00;
   404       0.0       -119.0    0.0       0.0       0.957     100       1         280.0     0.0       0.00      0.00      0.00      0.00      0.00      0.00      0.00      0.00      0.00      0.00      0.00;
   404       0.0       -119.0    0.0       0.0       0.957     100       1         280.0     0.0       0.00      0.00      0.00      0.00      0.00      0.00      0.00      0.00      0.00      0.00      0.00;
   405       0.0       -142.0    0.0       0.0       0.981     100       1         140.0     0.0       0.00      0.00      0.00      0.00      0.00      0.00      0.00      0.00      0.00      0.00      0.00;
   405       0.0       -142.0    0.0       0.0       0.981     100       1         140.0     0.0       0.00      0.00      0.00      0.00      0.00      0.00      0.00      0.00      0.00      0.00      0.00;
   406       0.0       -97.5     0.0       0.0       0.998     100       1         140.0     0.0       0.00      0.00      0.00      0.00      0.00      0.00      0.00      0.00      0.00      0.00      0.00;
   406       0.0       -97.5     0.0       0.0       0.998     100       1         140.0     0.0       0.00      0.00      0.00      0.00      0.00      0.00      0.00      0.00      0.00      0.00      0.00;
   8610      18.35     17.25     51.24     -16.0     0.989     100       1         18.35     0.0       0.00      0.00      0.00      0.00      0.00      0.00      0.00      0.00      0.00      0.00      0.00;
   8610      8.95      17.25     51.24     -16.0     0.989     100       1         18.35     0.0       0.00      0.00      0.00      0.00      0.00      0.00      0.00      0.00      0.00      0.00      0.00;
   8610      18.35     17.25     51.24     -16.0     0.989     100       1         18.35     0.0       0.00      0.00      0.00      0.00      0.00      0.00      0.00      0.00      0.00      0.00      0.00;
   8610      18.35     17.25     51.24     -16.0     0.989     100       1         18.35     0.0       0.00      0.00      0.00      0.00      0.00      0.00      0.00      0.00      0.00      0.00      0.00;
   5658      0.0       -603.0    0.0       0.0       0.99      100       1         360.0     0.0       0.00      0.00      0.00      0.00      0.00      0.00      0.00      0.00      0.00      0.00      0.00;
   5658      0.0       -603.0    0.0       0.0       0.99      100       1         360.0     0.0       0.00      0.00      0.00      0.00      0.00      0.00      0.00      0.00      0.00      0.00      0.00;
   5187      0.0       -62.4     0.0       0.0       1.013     100       1         12.48     0.0       0.00      0.00      0.00      0.00      0.00      0.00      0.00      0.00      0.00      0.00      0.00;
   5187      0.0       -62.4     0.0       0.0       1.013     100       1         13.92     0.0       0.00      0.00      0.00      0.00      0.00      0.00      0.00      0.00      0.00      0.00      0.00;
   5187      0.0       -62.4     0.0       0.0       1.013     100       1         12.48     0.0       0.00      0.00      0.00      0.00      0.00      0.00      0.00      0.00      0.00      0.00      0.00;
   5187      0.0       -62.4     0.0       0.0       1.013     100       1         13.92     0.0       0.00      0.00      0.00      0.00      0.00      0.00      0.00      0.00      0.00      0.00      0.00;
   5187      0.0       -62.4     0.0       0.0       1.013     100       1         12.48     0.0       0.00      0.00      0.00      0.00      0.00      0.00      0.00      0.00      0.00      0.00      0.00;
   5187      0.0       -62.4     0.0       0.0       1.013     100       1         14.88     0.0       0.00      0.00      0.00      0.00      0.00      0.00      0.00      0.00      0.00      0.00      0.00;
   5187      0.0       -62.4     0.0       0.0       1.013     100       1         13.92     0.0       0.00      0.00      0.00      0.00      0.00      0.00      0.00      0.00      0.00      0.00      0.00;
   5609      0.0       -392.0    0.0       0.0       0.981     100       1         360.14    0.0       0.00      0.00      0.00      0.00      0.00      0.00      0.00      0.00      0.00      0.00      0.00;
   3740      0.0       -104.0    0.0       0.0       1.016     100       1         70.58     0.0       0.00      0.00      0.00      0.00      0.00      0.00      0.00      0.00      0.00      0.00      0.00;
   3740      0.0       -104.0    0.0       0.0       1.016     100       1         69.86     0.0       0.00      0.00      0.00      0.00      0.00      0.00      0.00      0.00      0.00      0.00      0.00;
   998       300.0     -201.0    160.0     -115.0    0.997     100       1         345.0     0.0       0.00      0.00      0.00      0.00      0.00      0.00      0.00      0.00      0.00      0.00      0.00;
   5642      0.0       -36.7     0.0       0.0       1.034     100       1         56.3      0.0       0.00      0.00      0.00      0.00      0.00      0.00      0.00      0.00      0.00      0.00      0.00;
   5642      0.0       -36.7     0.0       0.0       1.034     100       1         365.32    0.0       0.00      0.00      0.00      0.00      0.00      0.00      0.00      0.00      0.00      0.00      0.00;
   5659      0.0       -302.0    0.0       0.0       0.99      100       1         365.0     0.0       0.00      0.00      0.00      0.00      0.00      0.00      0.00      0.00      0.00      0.00      0.00;
   5178      0.0       -173.0    0.0       0.0       1.013     100       1         52.38     0.0       0.00      0.00      0.00      0.00      0.00      0.00      0.00      0.00      0.00      0.00      0.00;
   5178      0.0       -173.0    0.0       0.0       1.013     100       1         52.38     0.0       0.00      0.00      0.00      0.00      0.00      0.00      0.00      0.00      0.00      0.00      0.00;
   5178      0.0       -173.0    0.0       0.0       1.013     100       1         52.38     0.0       0.00      0.00      0.00      0.00      0.00      0.00      0.00      0.00      0.00      0.00      0.00;
   5178      0.0       -173.0    0.0       0.0       1.013     100       1         43.6      0.0       0.00      0.00      0.00      0.00      0.00      0.00      0.00      0.00      0.00      0.00      0.00;
   6314      0.0       -227.0    0.0       0.0       1.012     100       1         16.5      0.0       0.00      0.00      0.00      0.00      0.00      0.00      0.00      0.00      0.00      0.00      0.00;
   6314      0.0       -227.0    0.0       0.0       1.012     100       1         33.0      0.0       0.00      0.00      0.00      0.00      0.00      0.00      0.00      0.00      0.00      0.00      0.00;
   6314      0.0       -227.0    0.0       0.0       1.012     100       1         49.5      0.0       0.00      0.00      0.00      0.00      0.00      0.00      0.00      0.00      0.00      0.00      0.00;
   6314      0.0       -227.0    0.0       0.0       1.012     100       1         66.0      0.0       0.00      0.00      0.00      0.00      0.00      0.00      0.00      0.00      0.00      0.00      0.00;
   6314      0.0       -227.0    0.0       0.0       1.012     100       1         82.5      0.0       0.00      0.00      0.00      0.00      0.00      0.00      0.00      0.00      0.00      0.00      0.00;
   6314      0.0       -227.0    0.0       0.0       1.012     100       1         99.0      0.0       0.00      0.00      0.00      0.00      0.00      0.00      0.00      0.00      0.00      0.00      0.00;
   6314      0.0       -227.0    0.0       0.0       1.012     100       1         115.5     0.0       0.00      0.00      0.00      0.00      0.00      0.00      0.00      0.00      0.00      0.00      0.00;
   6314      0.0       -227.0    0.0       0.0       1.012     100       1         132.0     0.0       0.00      0.00      0.00      0.00      0.00      0.00      0.00      0.00      0.00      0.00      0.00;
   5700      0.0       265.2     0.0       0.0       1.045     100       1         1593.2    0.0       0.00      0.00      0.00      0.00      0.00      0.00      0.00      0.00      0.00      0.00      0.00;
   5700      0.0       265.2     0.0       0.0       1.045     100       1         1060.0    0.0       0.00      0.00      0.00      0.00      0.00      0.00      0.00      0.00      0.00      0.00      0.00;
   5700      0.0       265.2     0.0       0.0       1.045     100       1         1060.0    0.0       0.00      0.00      0.00      0.00      0.00      0.00      0.00      0.00      0.00      0.00      0.00;
   5800      0.0       132.6     0.0       0.0       1.045     100       1         1060.0    0.0       0.00      0.00      0.00      0.00      0.00      0.00      0.00      0.00      0.00      0.00      0.00;
   5240      0.0       -3.14     0.0       0.0       0.999     100       1         13.28     0.0       0.00      0.00      0.00      0.00      0.00      0.00      0.00      0.00      0.00      0.00      0.00;
   5240      0.0       -3.14     0.0       0.0       0.999     100       1         13.28     0.0       0.00      0.00      0.00      0.00      0.00      0.00      0.00      0.00      0.00      0.00      0.00;
   5240      0.0       -3.14     0.0       0.0       0.999     100       1         13.28     0.0       0.00      0.00      0.00      0.00      0.00      0.00      0.00      0.00      0.00      0.00      0.00;
   5240      0.0       -3.14     0.0       0.0       0.999     100       1         13.28     0.0       0.00      0.00      0.00      0.00      0.00      0.00      0.00      0.00      0.00      0.00      0.00;
   5242      0.0       -4.7      0.0       0.0       0.999     100       1         9.57      0.0       0.00      0.00      0.00      0.00      0.00      0.00      0.00      0.00      0.00      0.00      0.00;
   5242      0.0       -4.7      0.0       0.0       0.999     100       1         9.57      0.0       0.00      0.00      0.00      0.00      0.00      0.00      0.00      0.00      0.00      0.00      0.00;
   5242      0.0       -4.7      0.0       0.0       0.999     100       1         9.57      0.0       0.00      0.00      0.00      0.00      0.00      0.00      0.00      0.00      0.00      0.00      0.00;
   5242      0.0       -4.7      0.0       0.0       0.999     100       1         8.25      0.0       0.00      0.00      0.00      0.00      0.00      0.00      0.00      0.00      0.00      0.00      0.00;
   5242      0.0       -4.7      0.0       0.0       0.999     100       1         9.57      0.0       0.00      0.00      0.00      0.00      0.00      0.00      0.00      0.00      0.00      0.00      0.00;
   5242      0.0       -4.7      0.0       0.0       0.999     100       1         8.25      0.0       0.00      0.00      0.00      0.00      0.00      0.00      0.00      0.00      0.00      0.00      0.00;
   6104      0.0       35.82     0.0       0.0       1.002     100       1         9.34      0.0       0.00      0.00      0.00      0.00      0.00      0.00      0.00      0.00      0.00      0.00      0.00;
   6104      0.0       35.82     0.0       0.0       1.002     100       1         9.34      0.0       0.00      0.00      0.00      0.00      0.00      0.00      0.00      0.00      0.00      0.00      0.00;
   6104      0.0       35.82     0.0       0.0       1.002     100       1         9.34      0.0       0.00      0.00      0.00      0.00      0.00      0.00      0.00      0.00      0.00      0.00      0.00;
   8421      0.0       69.19     0.0       0.0       1.002     100       1         9.36      0.0       0.00      0.00      0.00      0.00      0.00      0.00      0.00      0.00      0.00      0.00      0.00;
   8421      0.0       69.19     0.0       0.0       1.002     100       1         9.36      0.0       0.00      0.00      0.00      0.00      0.00      0.00      0.00      0.00      0.00      0.00      0.00;
   8421      0.0       69.19     0.0       0.0       1.002     100       1         9.36      0.0       0.00      0.00      0.00      0.00      0.00      0.00      0.00      0.00      0.00      0.00      0.00;
   8421      0.0       69.19     0.0       0.0       1.002     100       1         9.36      0.0       0.00      0.00      0.00      0.00      0.00      0.00      0.00      0.00      0.00      0.00      0.00;
   45528     0.0       69.19     0.0       0.0       1.002     100       1         9.33      0.0       0.00      0.00      0.00      0.00      0.00      0.00      0.00      0.00      0.00      0.00      0.00;
   45528     0.0       69.19     0.0       0.0       1.002     100       1         9.33      0.0       0.00      0.00      0.00      0.00      0.00      0.00      0.00      0.00      0.00      0.00      0.00;
   45528     0.0       69.19     0.0       0.0       1.002     100       1         9.33      0.0       0.00      0.00      0.00      0.00      0.00      0.00      0.00      0.00      0.00      0.00      0.00;
   45528     0.0       69.19     0.0       0.0       1.002     100       1         9.33      0.0       0.00      0.00      0.00      0.00      0.00      0.00      0.00      0.00      0.00      0.00      0.00;
   45528     0.0       69.19     0.0       0.0       1.002     100       1         9.33      0.0       0.00      0.00      0.00      0.00      0.00      0.00      0.00      0.00      0.00      0.00      0.00;
   45528     0.0       69.19     0.0       0.0       1.002     100       1         9.33      0.0       0.00      0.00      0.00      0.00      0.00      0.00      0.00      0.00      0.00      0.00      0.00;
   1152      0.0       -204.0    0.0       0.0       0.988     100       1         248.57    0.0       0.00      0.00      0.00      0.00      0.00      0.00      0.00      0.00      0.00      0.00      0.00;
   3974      0.0       -189.0    0.0       0.0       0.993     100       1         180.0     0.0       0.00      0.00      0.00      0.00      0.00      0.00      0.00      0.00      0.00      0.00      0.00;
   3974      0.0       -189.0    0.0       0.0       0.993     100       1         225.0     0.0       0.00      0.00      0.00      0.00      0.00      0.00      0.00      0.00      0.00      0.00      0.00;
   3974      0.0       -189.0    0.0       0.0       0.993     100       1         270.0     0.0       0.00      0.00      0.00      0.00      0.00      0.00      0.00      0.00      0.00      0.00      0.00;
   3974      0.0       -189.0    0.0       0.0       0.993     100       1         315.0     0.0       0.00      0.00      0.00      0.00      0.00      0.00      0.00      0.00      0.00      0.00      0.00;
   3974      0.0       -189.0    0.0       0.0       0.993     100       1         45.0      0.0       0.00      0.00      0.00      0.00      0.00      0.00      0.00      0.00      0.00      0.00      0.00;
   3974      0.0       -189.0    0.0       0.0       0.993     100       1         90.0      0.0       0.00      0.00      0.00      0.00      0.00      0.00      0.00      0.00      0.00      0.00      0.00;
   3974      0.0       -189.0    0.0       0.0       0.993     100       1         135.0     0.0       0.00      0.00      0.00      0.00      0.00      0.00      0.00      0.00      0.00      0.00      0.00;
   6021      0.0       0.0       0.0       0.0       0.991     100       1         22.43     0.0       0.00      0.00      0.00      0.00      0.00      0.00      0.00      0.00      0.00      0.00      0.00;
   6021      0.0       0.0       0.0       0.0       0.991     100       1         44.85     0.0       0.00      0.00      0.00      0.00      0.00      0.00      0.00      0.00      0.00      0.00      0.00;
   6021      0.0       0.0       0.0       0.0       0.991     100       1         67.28     0.0       0.00      0.00      0.00      0.00      0.00      0.00      0.00      0.00      0.00      0.00      0.00;
   6022      0.0       0.0       0.0       0.0       0.991     100       1         89.71     0.0       0.00      0.00      0.00      0.00      0.00      0.00      0.00      0.00      0.00      0.00      0.00;
   6022      0.0       0.0       0.0       0.0       0.991     100       1         112.14    0.0       0.00      0.00      0.00      0.00      0.00      0.00      0.00      0.00      0.00      0.00      0.00;
   6022      0.0       0.0       0.0       0.0       0.991     100       1         134.56    0.0       0.00      0.00      0.00      0.00      0.00      0.00      0.00      0.00      0.00      0.00      0.00;
   6023      0.0       0.0       0.0       0.0       0.991     100       1         156.99    0.0       0.00      0.00      0.00      0.00      0.00      0.00      0.00      0.00      0.00      0.00      0.00;
   6023      0.0       0.0       0.0       0.0       0.991     100       1         179.42    0.0       0.00      0.00      0.00      0.00      0.00      0.00      0.00      0.00      0.00      0.00      0.00;
   6023      0.0       0.0       0.0       0.0       0.991     100       1         201.84    0.0       0.00      0.00      0.00      0.00      0.00      0.00      0.00      0.00      0.00      0.00      0.00;
   6024      0.0       0.0       0.0       0.0       0.991     100       1         224.27    0.0       0.00      0.00      0.00      0.00      0.00      0.00      0.00      0.00      0.00      0.00      0.00;
   6024      0.0       0.0       0.0       0.0       0.991     100       1         246.7     0.0       0.00      0.00      0.00      0.00      0.00      0.00      0.00      0.00      0.00      0.00      0.00;
   6024      0.0       0.0       0.0       0.0       0.991     100       1         269.12    0.0       0.00      0.00      0.00      0.00      0.00      0.00      0.00      0.00      0.00      0.00      0.00;
   6025      0.0       0.0       0.0       0.0       0.991     100       1         291.55    0.0       0.00      0.00      0.00      0.00      0.00      0.00      0.00      0.00      0.00      0.00      0.00;
   6025      0.0       0.0       0.0       0.0       0.991     100       1         313.98    0.0       0.00      0.00      0.00      0.00      0.00      0.00      0.00      0.00      0.00      0.00      0.00;
   6025      0.0       0.0       0.0       0.0       0.991     100       1         336.4     0.0       0.00      0.00      0.00      0.00      0.00      0.00      0.00      0.00      0.00      0.00      0.00;
   6026      0.0       0.0       0.0       0.0       0.991     100       1         358.83    0.0       0.00      0.00      0.00      0.00      0.00      0.00      0.00      0.00      0.00      0.00      0.00;
   6026      0.0       0.0       0.0       0.0       0.991     100       1         381.26    0.0       0.00      0.00      0.00      0.00      0.00      0.00      0.00      0.00      0.00      0.00      0.00;
   3524      0.0       31.18     0.0       0.0       0.999     100       1         90.0      0.0       0.00      0.00      0.00      0.00      0.00      0.00      0.00      0.00      0.00      0.00      0.00;
   4300      0.0       31.18     0.0       0.0       0.999     100       1         90.0      0.0       0.00      0.00      0.00      0.00      0.00      0.00      0.00      0.00      0.00      0.00      0.00;
   4300      0.0       31.18     0.0       0.0       0.999     100       1         90.0      0.0       0.00      0.00      0.00      0.00      0.00      0.00      0.00      0.00      0.00      0.00      0.00;
   4301      0.0       31.18     0.0       0.0       0.999     100       1         180.0     0.0       0.00      0.00      0.00      0.00      0.00      0.00      0.00      0.00      0.00      0.00      0.00;
   5188      0.0       -112.0    0.0       0.0       1.013     100       1         6.24      0.0       0.00      0.00      0.00      0.00      0.00      0.00      0.00      0.00      0.00      0.00      0.00;
   5188      0.0       -112.0    0.0       0.0       1.013     100       1         13.92     0.0       0.00      0.00      0.00      0.00      0.00      0.00      0.00      0.00      0.00      0.00      0.00;
   5188      0.0       -112.0    0.0       0.0       1.013     100       1         12.48     0.0       0.00      0.00      0.00      0.00      0.00      0.00      0.00      0.00      0.00      0.00      0.00;
   5188      0.0       -112.0    0.0       0.0       1.013     100       1         13.92     0.0       0.00      0.00      0.00      0.00      0.00      0.00      0.00      0.00      0.00      0.00      0.00;
   5188      0.0       -112.0    0.0       0.0       1.013     100       1         4.8       0.0       0.00      0.00      0.00      0.00      0.00      0.00      0.00      0.00      0.00      0.00      0.00;
   5188      0.0       -112.0    0.0       0.0       1.013     100       1         12.48     0.0       0.00      0.00      0.00      0.00      0.00      0.00      0.00      0.00      0.00      0.00      0.00;
   5188      0.0       -112.0    0.0       0.0       1.013     100       1         12.48     0.0       0.00      0.00      0.00      0.00      0.00      0.00      0.00      0.00      0.00      0.00      0.00;
   5188      0.0       -112.0    0.0       0.0       1.013     100       1         12.48     0.0       0.00      0.00      0.00      0.00      0.00      0.00      0.00      0.00      0.00      0.00      0.00;
   5188      0.0       -112.0    0.0       0.0       1.013     100       1         13.92     0.0       0.00      0.00      0.00      0.00      0.00      0.00      0.00      0.00      0.00      0.00      0.00;
   5188      0.0       -112.0    0.0       0.0       1.013     100       1         13.92     0.0       0.00      0.00      0.00      0.00      0.00      0.00      0.00      0.00      0.00      0.00      0.00;
   5188      0.0       -112.0    0.0       0.0       1.013     100       1         12.48     0.0       0.00      0.00      0.00      0.00      0.00      0.00      0.00      0.00      0.00      0.00      0.00;
   5188      0.0       -112.0    0.0       0.0       1.013     100       1         13.92     0.0       0.00      0.00      0.00      0.00      0.00      0.00      0.00      0.00      0.00      0.00      0.00;
   5219      0.0       0.0       0.0       0.0       0.994     100       1         58.27     0.0       0.00      0.00      0.00      0.00      0.00      0.00      0.00      0.00      0.00      0.00      0.00;
...